/*--------------------------------*- C++ -*----------------------------------*\
| =========                 |                                                 |
| \\      /  F ield         | foam-extend: Open Source CFD                    |
|  \\    /   O peration     | Version:     4.0                                |
|   \\  /    A nd           | Web:         http://www.foam-extend.org         |
|    \\/     M anipulation  |                                                 |
\*---------------------------------------------------------------------------*/
FoamFile
{
    version     2.0;
    format      ascii;
    class       dictionary;
    location    "system";
    object      controlDict;
}
// * * * * * * * * * * * * * * * * * * * * * * * * * * * * * * * * * * * * * //

application     sedFoam;

startFrom       startTime;

startTime       0;

stopAt          endTime;

endTime         0.5;

deltaT          1e-4;//5;

writeControl    runTime;

writeInterval   1e-3;

purgeWrite      0;

writeFormat     binary;

writePrecision  6;

writeCompression no;

timeFormat      general;

timePrecision   9;

runTimeModifiable yes;

adjustTimeStep  no;

maxCo           0.8;

maxAlphaCo      0.9;

maxDeltaT       1e-4;

functions
{
	#include	"forces"
}

// ************************************************************************* //
