/*--------------------------------*- C++ -*----------------------------------*\
| =========                 |                                                 |
| \\      /  F ield         | OpenFOAM: The Open Source CFD Toolbox           |
|  \\    /   O peration     | Version:  1.7.1                                 |
|   \\  /    A nd           | Web:      www.OpenFOAM.com                      |
|    \\/     M anipulation  |                                                 |
\*---------------------------------------------------------------------------*/
FoamFile
{
    version     2.0;
    format      ascii;
    class       dictionary;
    location    "system";
    object      fvSchemes;
}
// * * * * * * * * * * * * * * * * * * * * * * * * * * * * * * * * * * * * * //

ddtSchemes
{
    default         Euler;
}

gradSchemes
{
        default         Gauss linear;

    grad(k)		cellLimited Gauss linear 1;
    grad(epsilon)		cellLimited Gauss linear 1;
    grad(omega)		cellLimited Gauss linear 1;
}

divSchemes
{
//    default         Gauss upwind phi;
    default         none;

// alphaEqn
    div(phi,alpha)  Gauss upwind;
    div(phir,alpha) Gauss upwind;
// UEqn
    div(phia,Ua)    Gauss upwind;
    div(phib,Ub)    Gauss upwind;
    div(phiRa,Ua)   Gauss upwind;
    div(phiRb,Ub)   Gauss upwind;
// pEqn
    div(alpha,nu)   Gauss linear;
// k and EpsilonEqn
    div(phib,k)     Gauss upwind;
    div(phib,omega) Gauss upwind;
    div(phib,epsilon) Gauss upwind;
// ThetaEqn
    div(phi,Theta)  Gauss upwind;
// alphaPlastic
    div(phia,alphaPlastic)    Gauss upwind;
// pa
    div(phia,pa_new_value)     Gauss upwind;
}

laplacianSchemes
{
    default         none;
// alphaEqn
    laplacian(alphaPpMag,alpha) Gauss linear corrected;
// UEqn
    laplacian(nuEffa,Ua) Gauss linear corrected;
    laplacian(nuEffb,Ub) Gauss linear corrected;
    laplacian(nuFra,Ua)  Gauss linear corrected;
// pEqn
    laplacian((rho*(1|A(U))),p_rbgh) Gauss linear corrected;
// k and EpsilonEqn 
    laplacian(DkEff,k) Gauss linear corrected;
    laplacian(DkEff,beta) Gauss linear corrected;
    laplacian(DomegaEff,omega) Gauss linear corrected;
    laplacian(DepsilonEff,epsilon) Gauss linear corrected;
    laplacian(DepsilonEff,beta) Gauss linear corrected;
//ThetaEqn
    laplacian(kappa,Theta) Gauss linear corrected;

    laplacian(diffusivity,cellDisplacement) Gauss linear limited corrected 0.33;
}

interpolationSchemes
{
    default  linear;
}

snGradSchemes
{
    default         corrected;
}

wallDist
    {
        method meshWave;
    }

fluxRequired
{
    default         no;
    p_rbgh               ;
}


// ************************************************************************* //
