FoamFile
{
    version     2.0;
    format      ascii;
    class       dictionary;
    location    "system";
    object      fvSchemes;
}
// * * * * * * * * * * * * * * * * * * * * * * * * * * * * * * * * * * * * * //

    ddtSchemes
    {
//        default Euler;
//        default CrankNicolson  1;
        default backward;
    }

    gradSchemes
    {
        default Gauss linear;

    grad(k)		cellLimited Gauss linear 1;
    grad(epsilon)		cellLimited Gauss linear 1;
    grad(omega)		cellLimited Gauss linear 1;
    }

    divSchemes
    {
        default         none;
    	div(phi,U)      Gauss linearUpwindV grad(U);
//        div(phi,U)      Gauss upwind;
//        div(phi,k)      Gauss upwind;
//        div(phi,epsilon)      Gauss upwind;
        div(phi,k)      Gauss limitedLinear 1;
        div(phi,epsilon) Gauss limitedLinear 1; 
        div(phi,omega)  Gauss limitedLinear 1;
        div((nuEff*dev2(T(grad(U))))) Gauss linear;
    }

    interpolationSchemes
    {
        default linear;
    }

    laplacianSchemes
    {
        default Gauss linear limited corrected 0.5;
        laplacian(diffusivity,cellDisplacement) Gauss linear limited corrected 0.33;
    }

    snGradSchemes
    {
        default corrected;
    }

    wallDist
    {
        method meshWave;
    }

    fluxRequired
    {
        default no;
        p ;
        Phi ;
    }
