/*--------------------------------*- C++ -*----------------------------------*\
| =========                 |                                                |
| \\      /  F ield         | cfMesh: A library for mesh generation          | 
|  \\    /   O peration     |                                                |
|   \\  /    A nd           | Author: Franjo Juretic                         | 
|    \\/     M anipulation  | E-mail: franjo.juretic@c-fields.com            |
\*---------------------------------------------------------------------------*/

FoamFile
{
    version   2.0;
    format    ascii;
    class     dictionary;
    location  "system";
    object    meshDict;
}

// * * * * * * * * * * * * * * * * * * * * * * * * * * * * * * * * * * * * * //

surfaceFile "stator.fms";

maxCellSize 0.005;

//boundaryCellSize 0.01;
localRefinement
{

	"GGI_slave"
	{

		//additional refinementLevels to background Mesh
		//additionalRefinementLevels 1;
		cellSize 0.003;

	}
}


boundaryLayers
{

} 


// ************************************************************************* //
